*Heading
** Job name: D6-GMNA Model name: D6
** Generated by: Abaqus/CAE 2024
*Preprint, echo=NO, model=NO, history=NO, contact=NO
**
** PARTS
**
*Part, name=Part-1
*End Part
**  
**
** ASSEMBLY
**
*Assembly, name=Assembly
**  
*Instance, name=Part-1-1, part=Part-1
*Node
      1,           0.,  -19.8549118,           0.
      2,           0.,  -26.0156136,  -83.0899963
      3,  -83.0899963,  -26.0156136,           0.
      4,           0.,  -26.0156136,   83.0899963
      5,   83.0899963,  -26.0156136,           0.
      6,           0.,  -19.8627834,  -2.97834992
      7,           0.,  -19.8864002,  -5.95661688
      8,           0.,  -19.9257603,  -8.93471718
      9,           0.,  -19.9808636,  -11.9125681
     10,           0.,  -20.0517082,  -14.8900852
     11,           0.,  -20.1382923,  -17.8671875
     12,           0.,   -20.240612,  -20.8437901
     13,           0.,  -20.3586674,   -23.819809
     14,           0.,  -20.4924526,  -26.7951641
     15,           0.,   -20.641964,  -29.7697697
     16,           0.,  -20.8071995,  -32.7435417
     17,           0.,  -20.9881516,  -35.7164001
     18,           0.,  -21.1848183,  -38.6882591
     19,           0.,  -21.3971939,  -41.6590385
     20,           0.,  -21.6252689,  -44.6286545
** ... 4909 like lines cut
*Element, type=S4R
   1,    6,    7,  287,  286
   2,    7,    8,  288,  287
   3,    8,    9,  289,  288
   4,    9,   10,  290,  289
   5,   10,   11,  291,  290
   6,   11,   12,  292,  291
   7,   12,   13,  293,  292
   8,   13,   14,  294,  293
   9,   14,   15,  295,  294
  10,   15,   16,  296,  295
  11,   16,   17,  297,  296
  12,   17,   18,  298,  297
  13,   18,   19,  299,  298
  14,   19,   20,  300,  299
  15,   20,   21,  301,  300
  16,   21,   22,  302,  301
  17,   22,   23,  303,  302
  18,   23,   24,  304,  303
  19,   24,   25,  305,  304
  20,   25,   26,  306,  305
** ... 4732 like lines cut
*Element, type=S3
1189,    1,    6,  286
1190,    1,  286,  313
1191,    1,  313,  340
1192,    1,  340,  367
1193,    1,  367,  394
1194,    1,  394,  421
1195,    1,  421,  448
1196,    1,  448,  475
1197,    1,  475,  502
1198,    1,  502,  529
1199,    1,  529,  556
1200,    1,  556,  583
1201,    1,  583,  610
1202,    1,  610,  637
1203,    1,  637,  664
1204,    1,  664,  691
1205,    1,  691,  718
1206,    1,  718,  745
1207,    1,  745,  772
1208,    1,  772,  799
** ... 156 like lines cut
*Nset, nset=Set-1, generate
    1,  4929,     1
*Elset, elset=Set-1, generate
    1,  4928,     1
** Section: Section-1
*Shell Section, elset=Set-1, material="Mild steel"
1.76, 5
*End Instance
**  
*Nset, nset=Bot, instance=Part-1-1
   2,   3,   4,   5,  33,  34,  35,  36,  37,  38,  39,  40,  41,  42,  43,  44
  45,  46,  47,  48,  49,  50,  51,  52,  53,  54,  55,  56,  57,  58,  59,  60
  61,  62,  63,  64,  65,  66,  67,  68,  69,  70,  71,  72,  73,  74,  75, 130
 131, 132, 133, 134, 135, 136, 137, 138, 139, 140, 141, 142, 143, 144, 145, 146
 147, 148, 149, 150, 151, 152, 153, 154, 155, 156, 157, 158, 159, 160, 161, 162
 163, 164, 165, 166, 167, 168, 169, 170, 171, 172, 200, 201, 202, 203, 204, 205
 206, 207, 208, 209, 210, 211, 212, 213, 214, 215, 216, 217, 218, 219, 220, 221
 222, 223, 224, 225, 226, 227, 228, 229, 230, 231, 232, 233, 234, 235, 236, 237
 238, 239, 240, 241, 242, 243, 244, 245, 246, 247, 248, 249, 250, 251, 252, 253
 254, 255, 256, 257, 258, 259, 260, 261, 262, 263, 264, 265, 266, 267, 268, 269
 270, 271, 272, 273, 274, 275, 276, 277, 278, 279, 280, 281, 282, 283, 284, 285
*Elset, elset=E_All, instance=Part-1-1, generate
    1,  4928,     1
*Nset, nset=N_All, instance=Part-1-1, generate
    1,  4929,     1
*Nset, nset=RP, instance=Part-1-1
 1,
*Elset, elset=_Surf-1_SPOS, internal, instance=Part-1-1, generate
    1,  4928,     1
*Surface, type=ELEMENT, name=Surf-1
_Surf-1_SPOS, SPOS
*End Assembly
** 
** MATERIALS
** 
*Material, name="Mild steel"
*Elastic
207000., 0.28
*Plastic
 303.5,0.
** 
** BOUNDARY CONDITIONS
** 
** Name: BC-1 Type: Displacement/Rotation
*Boundary
Bot, 1, 1
Bot, 2, 2
Bot, 3, 3
Bot, 4, 4
Bot, 5, 5
Bot, 6, 6
** ----------------------------------------------------------------
** 
** STEP: GMNA
** 
*Step, name=GMNA, nlgeom=YES, inc=30
*Static, riks
0.05, 1., 1e-15, , , 
** 
** LOADS
** 
** Name: Load-1   Type: Pressure
*Dsload
Surf-1, P, 1.
** 
** OUTPUT REQUESTS
** 
*Restart, write, frequency=0
** 
** FIELD OUTPUT: F-Output-1
** 
*Output, field, variable=PRESELECT
** 
** HISTORY OUTPUT: H-Output-1
** 
*Output, history
*Node Output, nset=RP
U1, U2, U3
*End Step
